Version 4
SHEET 1 1116 680
WIRE -688 -416 -688 -448
WIRE -336 -416 -336 -448
WIRE 48 -416 48 -448
WIRE 368 -416 368 -448
WIRE 448 -400 416 -400
WIRE 368 -320 48 -320
WIRE -736 -304 -736 -400
WIRE -736 -304 -816 -304
WIRE -688 -304 -688 -320
WIRE -384 -304 -384 -400
WIRE -384 -304 -688 -304
WIRE -336 -304 -336 -320
WIRE 0 -304 0 -400
WIRE 0 -304 -336 -304
WIRE 48 -304 48 -320
WIRE 96 -304 48 -304
WIRE -688 -288 -688 -304
WIRE -336 -288 -336 -304
WIRE 48 -288 48 -304
WIRE -736 -208 -736 -304
WIRE -384 -208 -384 -304
WIRE 0 -208 0 -304
WIRE -688 -176 -688 -192
WIRE -336 -176 -336 -192
WIRE 48 -160 48 -192
WIRE 0 -80 -32 -80
WIRE -704 -48 -704 -80
WIRE -352 -48 -352 -80
WIRE 48 -16 48 -64
WIRE -752 64 -752 -32
WIRE -752 64 -832 64
WIRE -704 64 -704 48
WIRE -400 64 -400 -32
WIRE -400 64 -704 64
WIRE -352 64 -352 48
WIRE -112 64 -352 64
WIRE -32 64 -32 -80
WIRE -32 64 -112 64
WIRE -704 80 -704 64
WIRE -352 80 -352 64
WIRE -752 160 -752 64
WIRE -400 160 -400 64
WIRE -704 192 -704 176
WIRE -352 192 -352 176
FLAG 48 -16 0
FLAG 48 -448 vdd
IOPIN 48 -448 In
FLAG -816 -304 A
IOPIN -816 -304 In
FLAG 96 -304 vout
IOPIN 96 -304 Out
FLAG -832 64 B
IOPIN -832 64 In
FLAG 368 -448 vdd
FLAG -688 -176 0
FLAG -688 -448 vdd
FLAG -336 -176 0
FLAG -336 -448 vdd
FLAG -704 192 0
FLAG -704 -80 vdd
FLAG -352 192 0
FLAG -352 -80 vdd
FLAG -112 64 Bint
FLAG 448 -400 Bint
SYMBOL nmos 0 -288 R0
SYMATTR InstName M1
SYMATTR Value nmod1 W=0.3u L=100u
SYMBOL pmos 0 -320 M180
SYMATTR InstName M2
SYMATTR Value pmod1 W=1u L=100u
SYMBOL nmos 0 -160 R0
SYMATTR InstName M3
SYMATTR Value nmod1 W=0.3u L=100u
SYMBOL pmos 416 -320 R180
SYMATTR InstName M4
SYMATTR Value pmod1 W=1u L=100u
SYMBOL nmos -736 -288 R0
SYMATTR InstName M5
SYMATTR Value nmod1 W=0.3u L=100u
SYMBOL pmos -736 -320 M180
SYMATTR InstName M6
SYMATTR Value pmod1 W=1u L=100u
SYMBOL nmos -384 -288 R0
SYMATTR InstName M7
SYMATTR Value nmod1 W=0.3u L=100u
SYMBOL pmos -384 -320 M180
SYMATTR InstName M8
SYMATTR Value pmod1 W=1u L=100u
SYMBOL nmos -752 80 R0
SYMATTR InstName M9
SYMATTR Value nmod1 W=0.3u L=100u
SYMBOL pmos -752 48 M180
SYMATTR InstName M10
SYMATTR Value pmod1 W=1u L=100u
SYMBOL nmos -400 80 R0
SYMATTR InstName M11
SYMATTR Value nmod1 W=0.3u L=100u
SYMBOL pmos -400 48 M180
SYMATTR InstName M12
SYMATTR Value pmod1 W=1u L=100u
