Version 4
SHEET 1 1116 680
WIRE 224 -176 224 -208
WIRE 640 -176 640 -208
WIRE -16 -144 -16 -176
WIRE 368 -128 304 -128
WIRE 800 -128 720 -128
WIRE -16 -32 -16 -64
FLAG -16 -32 0
FLAG -16 -176 VDD
FLAG 224 -208 VDD
FLAG 640 -208 VDD
FLAG 368 -128 VoutINV
FLAG 800 -128 VoutNAND
SYMBOL INV 208 -128 R0
SYMATTR InstName X1
SYMBOL NAND 640 -128 R0
SYMATTR InstName X2
SYMBOL voltage -16 -160 R0
SYMATTR InstName V1
SYMATTR Value 5
TEXT -56 40 Left 2 !.model nmod1 nmos l=3u w=6u kp=69u gamma=0.37 lambda=0.06 rd=1 rs=1 vto=1 tox=0.04u\n+ cbd=2f cbs=2f cj=200u cgbo=200p cgso=40p cgdo=40p\n.model pmod1 pmos l=3u w=6u kp=34.5u gamma=-0.37 lambda=0.06 rd=1 rs=1 vto=-1 tox=0.04u\n+ cbd=2f cbs=2f cj=200u cgbo=200p cgso=40p cgdo=40p
