Version 4
SHEET 1 880 680
WIRE 64 128 -16 128
WIRE 80 128 64 128
WIRE 320 144 320 112
WIRE 320 160 320 144
WIRE 48 176 -48 176
WIRE 64 176 48 176
WIRE 256 176 176 176
WIRE 272 176 256 176
WIRE 384 176 368 176
WIRE 416 176 384 176
WIRE 112 208 48 208
WIRE 128 208 112 208
WIRE 48 240 48 208
WIRE 48 240 -48 240
FLAG -16 128 VDD
IOPIN -16 128 In
FLAG -48 176 A
IOPIN -48 176 In
FLAG -48 240 B
IOPIN -48 240 In
FLAG 416 176 Vout
IOPIN 416 176 Out
FLAG 320 112 VDD
FLAG 176 48 AND_GATE
SYMBOL Nand_gate 160 192 R0
SYMATTR InstName X1
SYMBOL Inverter 352 192 R0
SYMATTR InstName X2
