Version 4
SHEET 1 984 680
WIRE 48 64 48 16
WIRE 304 64 48 64
WIRE 448 64 304 64
WIRE 48 112 48 64
WIRE 96 112 48 112
WIRE 112 112 96 112
WIRE 448 112 448 64
WIRE 480 112 448 112
WIRE 496 112 480 112
WIRE 304 128 304 64
WIRE 336 128 304 128
WIRE 656 128 656 96
WIRE 704 128 656 128
WIRE 80 160 32 160
WIRE 272 160 208 160
WIRE 464 160 400 160
WIRE 480 160 464 160
WIRE 640 160 592 160
WIRE 784 160 768 160
WIRE 144 192 112 192
WIRE 528 192 448 192
WIRE 112 208 112 192
WIRE 112 208 32 208
WIRE 448 304 448 192
WIRE 448 304 48 304
FLAG 432 16 AND_3
FLAG 48 304 Cin
IOPIN 48 304 In
FLAG 32 160 A
IOPIN 32 160 In
FLAG 32 208 B
IOPIN 32 208 In
FLAG 48 16 VDD
IOPIN 48 16 In
FLAG 784 160 AND_3_OUT
IOPIN 784 160 Out
FLAG 656 96 VDD
SYMBOL Nand_gate 192 176 R0
SYMATTR InstName X1
SYMBOL Nand_gate 576 176 R0
SYMATTR InstName X2
SYMBOL Inverter 368 176 R0
SYMATTR InstName X3
SYMBOL Inverter 736 176 R0
SYMATTR InstName X4
