Version 4
SHEET 1 880 680
WIRE -48 80 -112 80
WIRE 64 80 -48 80
WIRE 368 80 144 80
WIRE 464 80 368 80
WIRE 592 96 496 96
WIRE 464 112 432 112
WIRE 16 192 -112 192
WIRE 64 192 16 192
WIRE 320 192 144 192
WIRE 432 192 432 112
WIRE 432 192 320 192
WIRE -48 224 -48 80
WIRE 464 224 -48 224
WIRE 592 240 496 240
WIRE 320 256 320 192
WIRE 464 256 320 256
WIRE 16 384 16 192
WIRE 464 384 16 384
WIRE 592 400 496 400
WIRE 368 416 368 80
WIRE 464 416 368 416
WIRE 16 512 16 384
WIRE 464 512 16 512
WIRE 592 528 496 528
WIRE -48 544 -48 224
WIRE 464 544 -48 544
FLAG -112 80 VinA
IOPIN -112 80 In
FLAG -112 192 VinB
IOPIN -112 192 In
FLAG 592 96 D0
IOPIN 592 96 Out
FLAG 592 240 D1
IOPIN 592 240 Out
FLAG 592 400 D2
IOPIN 592 400 Out
FLAG 592 528 D3
IOPIN 592 528 Out
SYMBOL CMOSInverter 96 80 R0
SYMATTR InstName X1
SYMBOL CMOSInverter 96 192 R0
SYMATTR InstName X2
SYMBOL CMOSNAND 480 96 R0
SYMATTR InstName X3
SYMBOL CMOSNAND 480 240 R0
SYMATTR InstName X4
SYMBOL CMOSNAND 480 400 R0
SYMATTR InstName X5
SYMBOL CMOSNAND 480 528 R0
SYMATTR InstName X6
