Version 4
SHEET 1 880 680
FLAG -224 128 B3
IOPIN -224 128 In
FLAG -224 160 B2
IOPIN -224 160 In
FLAG -224 192 B1
IOPIN -224 192 In
FLAG -224 224 B0
IOPIN -224 224 In
FLAG 32 -192 B3
FLAG 32 -160 B2
FLAG 32 -128 B1
FLAG 32 -96 B0
SYMBOL MUX_2_9bit_1 272 160 R0
SYMATTR InstName X1
SYMBOL Mult_4_4 -64 224 R0
SYMATTR InstName X2
SYMBOL RCA_ 176 -96 M0
SYMATTR InstName X3
