Version 4
SHEET 1 1092 680
WIRE 128 -128 128 -208
WIRE 832 -96 832 -176
WIRE -528 -80 -704 -80
WIRE 64 -80 -528 -80
WIRE 528 -80 528 -160
WIRE 256 -48 224 -48
WIRE 448 -48 416 -48
WIRE 768 -48 640 -48
WIRE 64 -32 -368 -32
WIRE 448 -32 448 -48
WIRE 464 -32 448 -32
WIRE 1088 -16 928 -16
WIRE 640 0 640 -48
WIRE 640 0 624 0
WIRE 768 0 736 0
WIRE 464 16 448 16
WIRE 352 32 352 0
WIRE 448 64 448 16
WIRE 448 64 240 64
WIRE -528 144 -528 -80
WIRE -560 208 -688 208
WIRE -432 208 -432 160
WIRE -368 208 -368 -32
WIRE -368 208 -432 208
WIRE 48 208 -368 208
WIRE 240 208 240 64
WIRE 240 208 208 208
WIRE 1088 208 1088 -16
WIRE 1088 208 688 208
WIRE 736 224 736 0
WIRE 1088 224 736 224
WIRE 144 288 144 256
WIRE 544 400 544 320
WIRE 112 416 112 352
WIRE 240 416 240 208
WIRE 400 416 240 416
WIRE 112 432 112 416
WIRE 688 432 688 208
WIRE 768 432 688 432
WIRE 400 448 400 416
WIRE 480 448 400 448
WIRE 1088 448 1088 224
WIRE 1088 448 928 448
WIRE -368 464 -368 208
WIRE 48 464 -368 464
WIRE 768 480 640 480
WIRE 240 496 208 496
WIRE 480 496 400 496
WIRE -528 512 -528 272
WIRE 48 512 -528 512
WIRE 336 576 336 544
WIRE 832 576 832 528
FLAG -432 160 CLK
IOPIN -432 160 In
FLAG -688 208 VDD
IOPIN -688 208 In
FLAG -704 -80 D
IOPIN -704 -80 In
FLAG 144 288 VDD
FLAG 832 576 VDD
FLAG 832 -176 VDD
FLAG 352 32 VDD
FLAG 528 -160 VDD
FLAG 128 -208 VDD
FLAG 336 576 VDD
FLAG 544 320 VDD
FLAG 112 352 VDD
SYMBOL INVslow 128 208 M180
SYMATTR InstName X2
SYMBOL NAND 832 -48 R0
SYMATTR InstName X3
SYMBOL NAND 832 480 M180
SYMATTR InstName X4
SYMBOL NAND 128 -80 R0
SYMATTR InstName X5
SYMBOL INV 336 -48 M180
SYMATTR InstName X6
SYMBOL NAND 112 464 R0
SYMATTR InstName X7
SYMBOL INV 320 496 M180
SYMATTR InstName X8
SYMBOL NAND 528 -32 R0
SYMATTR InstName X9
SYMBOL NAND 544 448 R0
SYMATTR InstName X10
SYMBOL Inverter -512 240 M90
SYMATTR InstName X1
