Version 4
SHEET 1 2028 680
WIRE 1008 -208 1008 -256
WIRE 1664 -208 1664 -256
WIRE 1872 -208 1872 -256
WIRE 112 -192 112 -240
WIRE 336 -192 336 -240
WIRE 560 -192 560 -240
WIRE 784 -192 784 -240
WIRE 1216 -192 1216 -240
WIRE 1440 -192 1440 -240
WIRE 960 -160 944 -160
WIRE 1616 -160 1600 -160
WIRE 1824 -160 1808 -160
WIRE 1840 -160 1824 -160
WIRE 64 -144 48 -144
WIRE 288 -144 272 -144
WIRE 512 -144 496 -144
WIRE 736 -144 720 -144
WIRE 1072 -144 1056 -144
WIRE 1168 -144 1152 -144
WIRE 1392 -144 1376 -144
WIRE 1728 -144 1712 -144
WIRE 1936 -144 1920 -144
WIRE 176 -128 160 -128
WIRE 400 -128 384 -128
WIRE 624 -128 608 -128
WIRE 848 -128 832 -128
WIRE 1280 -128 1264 -128
WIRE 1504 -128 1488 -128
WIRE 960 -112 944 -112
WIRE 1616 -112 1600 -112
WIRE 1824 -112 1808 -112
WIRE 1840 -112 1824 -112
WIRE 64 -96 48 -96
WIRE 288 -96 272 -96
WIRE 512 -96 496 -96
WIRE 736 -96 720 -96
WIRE 1168 -96 1152 -96
WIRE 1392 -96 1376 -96
WIRE 560 -64 560 -80
WIRE 1664 -48 1664 -80
WIRE 1872 -48 1872 -80
WIRE 1008 -32 1008 -80
WIRE 112 -16 112 -64
WIRE 336 -16 336 -64
WIRE 560 -16 560 -64
WIRE 784 -16 784 -64
WIRE 1216 -16 1216 -64
WIRE 1440 -16 1440 -64
FLAG 1872 -256 VDD
FLAG 1664 -256 VDD
FLAG 1440 -240 VDD
FLAG 1216 -240 VDD
FLAG 1008 -256 VDD
FLAG 784 -240 VDD
FLAG 560 -240 VDD
FLAG 336 -240 VDD
FLAG 112 -240 VDD
IOPIN 112 -240 In
FLAG 112 -16 Sel
IOPIN 112 -16 In
FLAG 336 -16 Sel
FLAG 560 -16 Sel
FLAG 784 -16 Sel
FLAG 1008 -32 Sel
FLAG 1216 -16 Sel
FLAG 1440 -16 Sel
FLAG 1664 -48 Sel
FLAG 1872 -48 Sel
FLAG 176 -128 Q1
IOPIN 176 -128 Out
FLAG 400 -128 Q2
IOPIN 400 -128 Out
FLAG 624 -128 Q3
IOPIN 624 -128 Out
FLAG 848 -128 Q4
IOPIN 848 -128 Out
FLAG 1072 -144 Q5
IOPIN 1072 -144 Out
FLAG 1280 -128 Q6
IOPIN 1280 -128 Out
FLAG 1504 -128 Q7
IOPIN 1504 -128 Out
FLAG 1728 -144 Q8
IOPIN 1728 -144 Out
FLAG 1936 -144 Q0
IOPIN 1936 -144 Out
FLAG 48 -144 A1
IOPIN 48 -144 In
FLAG 272 -144 A2
IOPIN 272 -144 In
FLAG 496 -144 A3
IOPIN 496 -144 In
FLAG 720 -144 A4
IOPIN 720 -144 In
FLAG 944 -160 A5
IOPIN 944 -160 In
FLAG 1152 -144 A6
IOPIN 1152 -144 In
FLAG 1376 -144 A7
IOPIN 1376 -144 In
FLAG 1600 -160 A8
IOPIN 1600 -160 In
FLAG 1808 -160 A0
IOPIN 1808 -160 In
FLAG 48 -96 B1
IOPIN 48 -96 In
FLAG 272 -96 B2
IOPIN 272 -96 In
FLAG 496 -96 B3
IOPIN 496 -96 In
FLAG 720 -96 B4
IOPIN 720 -96 In
FLAG 944 -112 B5
IOPIN 944 -112 In
FLAG 1152 -96 B6
IOPIN 1152 -96 In
FLAG 1376 -96 B7
IOPIN 1376 -96 In
FLAG 1600 -112 B8
IOPIN 1600 -112 In
FLAG 1808 -112 B0
IOPIN 1808 -112 In
FLAG 896 -384 Nine_bit_MUX_2_1
SYMBOL MUX_2_1 144 -96 R0
SYMATTR InstName X1
SYMBOL MUX_2_1 368 -96 R0
SYMATTR InstName X2
SYMBOL MUX_2_1 592 -96 R0
SYMATTR InstName X3
SYMBOL MUX_2_1 816 -96 R0
SYMATTR InstName X4
SYMBOL MUX_2_1 1040 -112 R0
SYMATTR InstName X5
SYMBOL MUX_2_1 1248 -96 R0
SYMATTR InstName X6
SYMBOL MUX_2_1 1472 -96 R0
SYMATTR InstName X7
SYMBOL MUX_2_1 1696 -112 R0
SYMATTR InstName X8
SYMBOL MUX_2_1 1904 -112 R0
SYMATTR InstName X9
