Version 4
SHEET 1 880 680
WIRE -48 -80 -80 -80
WIRE 16 -64 16 -112
WIRE -48 -32 -80 -32
WIRE -32 -32 -48 -32
WIRE 208 -32 80 -32
WIRE 160 96 112 96
WIRE 208 112 208 -32
WIRE 352 144 272 144
WIRE -48 176 -80 176
WIRE -320 192 -320 160
WIRE 16 192 16 112
WIRE -192 208 -256 208
WIRE -384 224 -432 224
WIRE -256 224 -256 208
WIRE -48 224 -80 224
WIRE -32 224 -48 224
WIRE 144 224 144 144
WIRE 144 224 80 224
FLAG 352 144 Q
IOPIN 352 144 Out
FLAG -80 224 Sel_not
FLAG -80 176 B
IOPIN -80 176 In
FLAG -80 -32 A
IOPIN -80 -32 In
FLAG 16 112 VDD
IOPIN 16 112 In
FLAG 16 -112 VDD
FLAG 112 96 VDD
FLAG -80 -80 Sel
IOPIN -80 -80 In
FLAG -432 224 Sel
FLAG -192 208 Sel_not
FLAG -320 160 VDD
FLAG -64 -176 MUX_2_1
SYMBOL OR_gate 240 144 R0
SYMATTR InstName X1
SYMBOL AND_gate 48 -32 R0
SYMATTR InstName X2
SYMBOL AND_gate 48 224 R0
SYMATTR InstName X3
SYMBOL Inverter -288 240 R0
SYMATTR InstName X4
