Version 4
SHEET 1 1000 680
WIRE 256 -192 224 -192
WIRE 592 -192 560 -192
WIRE 224 -144 224 -192
WIRE 560 -144 560 -192
WIRE 736 -144 704 -144
WIRE 224 -128 224 -144
WIRE 560 -128 560 -144
WIRE 704 -96 704 -144
WIRE 704 -80 704 -96
WIRE -144 -64 -176 -64
WIRE 560 -48 560 -64
WIRE 560 -48 448 -48
WIRE 224 -32 224 -64
WIRE 224 -32 176 -32
WIRE 288 -32 224 -32
WIRE -176 -16 -176 -64
WIRE -176 0 -176 -16
WIRE 0 0 -64 0
WIRE 64 0 0 0
WIRE 528 0 496 0
WIRE -64 48 -64 0
WIRE 0 48 0 0
WIRE 224 48 224 -32
WIRE 288 48 288 -32
WIRE 496 48 496 0
WIRE 560 48 560 -48
WIRE 704 48 704 -16
WIRE 752 48 704 48
WIRE -64 64 -64 48
WIRE 0 64 0 48
WIRE 224 64 224 48
WIRE 288 64 288 48
WIRE 496 64 496 48
WIRE 560 64 560 48
WIRE 752 80 752 48
WIRE -176 112 -176 64
WIRE -112 112 -176 112
WIRE -96 112 -112 112
WIRE 32 112 32 96
WIRE 176 112 176 -32
WIRE 320 112 320 96
WIRE 448 112 448 -48
WIRE 592 112 576 112
WIRE 640 112 592 112
WIRE 704 112 704 48
WIRE 848 112 832 112
WIRE 928 112 848 112
WIRE 704 128 704 112
WIRE 928 144 928 112
WIRE -80 192 -80 176
WIRE -16 192 -16 176
WIRE 32 192 32 112
WIRE 208 192 32 192
WIRE 272 192 272 176
WIRE 320 192 320 112
WIRE 480 192 320 192
WIRE 544 192 544 176
WIRE 640 192 640 112
WIRE 736 192 640 192
WIRE 752 192 736 192
WIRE 800 192 800 176
WIRE -16 256 -16 192
WIRE 0 256 -16 256
WIRE 16 256 0 256
WIRE 272 256 272 192
WIRE 544 256 544 192
WIRE 800 256 800 192
WIRE 272 272 272 256
WIRE 544 272 544 256
WIRE 800 272 800 256
WIRE -80 320 -80 192
WIRE -48 320 -80 320
WIRE -32 320 -48 320
FLAG 928 144 0
FLAG 736 -144 0
FLAG 784 112 1_LSB
FLAG 512 112 2_
FLAG 240 112 3_
FLAG -48 112 4_MSB
FLAG 592 -192 0
FLAG 256 -192 0
FLAG -144 -64 0
FLAG 368 -256 RCA_
FLAG 368 -224 Adding_A.0101_B.0110
FLAG 528 0 0
FLAG 64 0 0
FLAG 800 256 S0
IOPIN 800 256 Out
FLAG 544 256 S1
IOPIN 544 256 Out
FLAG 272 256 S2
IOPIN 272 256 Out
FLAG 0 256 S3
IOPIN 0 256 Out
FLAG -48 320 Carry
IOPIN -48 320 Out
SYMBOL Full_Adder -96 144 R90
SYMATTR InstName X1
SYMBOL Full_Adder 192 144 R90
SYMATTR InstName X2
SYMBOL Full_Adder 464 144 R90
SYMATTR InstName X3
SYMBOL Full_Adder 720 144 R90
SYMATTR InstName X4
SYMBOL voltage 704 0 M180
WINDOW 0 24 96 Left 2
WINDOW 3 24 16 Left 2
WINDOW 123 0 0 Left 2
WINDOW 39 0 0 Left 2
SYMATTR InstName V2
SYMATTR Value 5
SYMBOL voltage 560 -48 M180
WINDOW 0 24 96 Left 2
WINDOW 3 24 16 Left 2
WINDOW 123 0 0 Left 2
WINDOW 39 0 0 Left 2
SYMATTR InstName V4
SYMATTR Value 5
SYMBOL voltage 224 -48 M180
WINDOW 0 24 96 Left 2
WINDOW 3 24 16 Left 2
WINDOW 123 0 0 Left 2
WINDOW 39 0 0 Left 2
SYMATTR InstName V5
SYMATTR Value 5
SYMBOL voltage -176 80 M180
WINDOW 0 24 96 Left 2
WINDOW 3 24 16 Left 2
WINDOW 123 0 0 Left 2
WINDOW 39 0 0 Left 2
SYMATTR InstName V3
SYMATTR Value 5
TEXT -210 382 Left 2 !.tran 24ms
