Version 4
SHEET 1 880 680
WIRE 144 -80 48 -80
WIRE 48 16 48 -80
WIRE 112 16 48 16
WIRE 48 48 48 16
WIRE 112 48 112 16
WIRE 112 64 112 48
WIRE 144 80 144 0
WIRE 144 96 144 80
WIRE 32 128 -16 128
WIRE 80 128 32 128
WIRE 96 128 80 128
WIRE 160 128 160 80
WIRE 224 144 208 144
WIRE 288 144 224 144
WIRE 32 176 32 128
WIRE 80 176 32 176
WIRE 96 176 80 176
WIRE 224 176 208 176
WIRE 288 176 224 176
WIRE 32 208 32 176
WIRE 80 208 32 208
WIRE 96 208 80 208
WIRE 224 208 208 208
WIRE 288 208 224 208
WIRE 80 240 16 240
WIRE 224 240 208 240
WIRE 288 240 224 240
WIRE 96 272 96 256
WIRE 128 272 128 240
WIRE 160 272 160 240
WIRE 192 272 192 256
WIRE 16 320 16 240
WIRE 96 320 96 272
WIRE 96 320 16 320
WIRE 128 320 128 272
WIRE 128 320 96 320
WIRE 160 320 160 272
WIRE 160 320 128 320
WIRE 192 320 192 272
WIRE 192 320 160 320
WIRE 16 336 16 320
WIRE 16 448 16 416
FLAG -16 128 0
FLAG 16 448 0
FLAG 288 144 S3
IOPIN 288 144 Out
FLAG 288 176 S2
IOPIN 288 176 Out
FLAG 288 208 S1
IOPIN 288 208 Out
FLAG 288 240 S0
IOPIN 288 240 Out
FLAG 160 80 Carry
IOPIN 160 80 Out
FLAG 48 48 0
SYMBOL voltage 16 320 R0
WINDOW 123 0 0 Left 2
WINDOW 39 0 0 Left 2
SYMATTR InstName V1
SYMATTR Value 5
SYMBOL RCA_ 128 240 R0
SYMATTR InstName X1
SYMBOL voltage 144 16 R180
WINDOW 0 24 96 Left 2
WINDOW 3 24 16 Left 2
WINDOW 123 0 0 Left 2
WINDOW 39 0 0 Left 2
SYMATTR InstName V2
SYMATTR Value 5
TEXT -36 472 Left 2 !.tran 26m
