Version 4
SHEET 1 956 680
WIRE 240 16 -176 16
WIRE 448 16 400 16
WIRE 624 16 608 16
WIRE -288 48 -288 32
WIRE -80 48 -288 48
WIRE 176 48 -80 48
WIRE -288 64 -288 48
WIRE -112 64 -288 64
WIRE -288 80 -288 64
WIRE 304 80 304 64
WIRE 512 80 512 64
WIRE 368 128 368 112
WIRE -80 144 -80 48
WIRE 176 160 176 48
WIRE 368 160 368 128
WIRE 560 160 560 128
WIRE -112 192 -112 64
WIRE 304 192 240 192
WIRE 496 192 432 192
WIRE 624 192 624 16
WIRE 624 192 608 192
WIRE -288 208 -288 160
WIRE -176 208 -176 16
WIRE -144 208 -176 208
WIRE 112 240 112 192
WIRE 112 240 -96 240
WIRE -96 352 -96 320
FLAG -288 32 VDD
FLAG -288 208 0
FLAG 368 128 VDD
FLAG 560 128 VDD
FLAG 304 80 VDD
FLAG 512 80 VDD
FLAG -96 352 0
SYMBOL voltage -288 64 R0
SYMATTR InstName V1
SYMATTR Value 5
SYMBOL INVslow 320 16 R180
SYMATTR InstName X2
SYMBOL INVslow 528 16 R180
SYMATTR InstName X3
SYMBOL Inverter 208 208 R0
SYMATTR InstName X4
SYMBOL Inverter 400 208 R0
SYMATTR InstName X5
SYMBOL Inverter 592 208 R0
SYMATTR InstName X6
SYMBOL voltage -96 224 R0
WINDOW 123 0 0 Left 2
WINDOW 39 0 0 Left 2
SYMATTR InstName V2
SYMATTR Value PULSE(0 5 0 1n 1n 10u 20u 100)
TEXT 24 264 Left 2 !.tran 200u
TEXT -192 -80 Left 2 !.inc "C:\\Users\\colle\\OneDrive - California Polytechnic State University\\EE 307\\FinalFiles\\CD4009.mod"
