Version 4
SHEET 1 880 680
WIRE 80 -128 80 -160
WIRE 64 -48 16 -48
WIRE 80 -48 64 -48
WIRE -240 32 -256 32
WIRE 0 32 -240 32
WIRE 64 80 64 -48
WIRE 64 96 64 80
WIRE -208 112 -240 112
WIRE 0 112 0 32
WIRE 0 128 0 112
WIRE 144 128 128 128
WIRE 192 128 144 128
WIRE 0 176 -240 176
WIRE 16 176 0 176
WIRE 144 192 128 192
WIRE 192 192 144 192
WIRE -240 288 -240 256
WIRE -192 288 -240 288
WIRE 64 288 64 224
WIRE 64 288 48 288
WIRE 48 400 48 368
FLAG 80 -160 0
FLAG 48 400 0
FLAG -192 288 0
FLAG -208 112 0
FLAG 192 192 Sum
IOPIN 192 192 Out
FLAG 192 128 Carry
IOPIN 192 128 Out
SYMBOL voltage 48 272 R0
WINDOW 123 0 0 Left 2
WINDOW 39 0 0 Left 2
SYMATTR InstName V1
SYMATTR Value 5
SYMBOL voltage 80 -32 R180
WINDOW 123 0 0 Left 2
WINDOW 39 0 0 Left 2
SYMATTR InstName V2
SYMATTR Value PULSE(0 5 12m 0 0 12m 0 0)
SYMBOL voltage -240 16 M0
WINDOW 0 24 96 Left 2
WINDOW 3 69 101 Left 2
WINDOW 123 0 0 Left 2
WINDOW 39 0 0 Left 2
SYMATTR InstName V3
SYMATTR Value PULSE(0 5 5.7m 0 0 5.8m 11.6m)
SYMBOL voltage -240 160 R0
WINDOW 0 24 96 Left 2
WINDOW 3 -359 63 Left 2
WINDOW 123 0 0 Left 2
WINDOW 39 0 0 Left 2
SYMATTR InstName V4
SYMATTR Value PULSE(0 5 2.7m 0 0 3m 6m 4)
SYMBOL Full_Adder 96 208 R0
SYMATTR InstName X1
TEXT 206 280 Left 2 !.tran 26m
