Version 4
SHEET 1 880 680
WIRE 64 -192 64 -224
WIRE 112 -192 64 -192
WIRE 144 -192 112 -192
WIRE 160 -192 144 -192
WIRE 64 -176 64 -192
WIRE 64 -48 64 -96
WIRE 64 -48 48 -48
WIRE 80 -48 64 -48
WIRE 48 48 48 -48
WIRE 80 48 80 -48
WIRE 112 48 112 -192
WIRE 144 48 144 -192
WIRE 432 128 352 128
WIRE -224 240 -256 240
WIRE -208 240 -224 240
WIRE -32 240 -128 240
WIRE -16 240 -32 240
WIRE 16 240 -16 240
WIRE 352 240 352 160
WIRE 432 240 432 208
WIRE 432 240 352 240
WIRE -16 272 -16 240
WIRE 16 272 -16 272
WIRE 416 272 352 272
WIRE -32 304 -32 240
WIRE 16 304 -32 304
WIRE 416 304 416 272
WIRE 416 304 352 304
WIRE -224 336 -224 240
WIRE 16 336 -224 336
WIRE 416 336 416 304
WIRE 416 336 352 336
WIRE 432 336 432 240
WIRE 432 336 416 336
WIRE 448 336 432 336
WIRE 48 368 48 352
WIRE 48 400 48 368
WIRE 112 400 112 368
WIRE 176 400 176 368
WIRE 240 400 240 368
WIRE 304 400 304 368
WIRE 80 432 80 368
WIRE 144 432 144 368
WIRE 208 432 208 368
WIRE 272 432 272 368
FLAG -256 240 0
FLAG 64 -224 0
FLAG 448 336 0
FLAG 48 400 Q0
IOPIN 48 400 Out
FLAG 80 432 Q1
IOPIN 80 432 Out
FLAG 112 400 Q2
IOPIN 112 400 Out
FLAG 144 432 Q3
IOPIN 144 432 Out
FLAG 176 400 Q4
IOPIN 176 400 Out
FLAG 208 432 Q5
IOPIN 208 432 Out
FLAG 240 400 Q6
IOPIN 240 400 Out
FLAG 272 432 Q7
IOPIN 272 432 Out
FLAG 304 400 Q8
IOPIN 304 400 Out
SYMBOL MUX_Mult_Adder 208 144 R0
SYMATTR InstName X1
SYMBOL voltage -112 240 M270
WINDOW 0 32 56 VTop 2
WINDOW 3 -32 56 VBottom 2
WINDOW 123 0 0 Left 2
WINDOW 39 0 0 Left 2
SYMATTR InstName V1
SYMATTR Value 5
SYMBOL voltage 64 -80 R180
WINDOW 0 32 56 VTop 2
WINDOW 3 -32 56 VBottom 2
WINDOW 123 0 0 Left 2
WINDOW 39 0 0 Left 2
SYMATTR InstName V2
SYMATTR Value 5
SYMBOL voltage 432 112 R0
WINDOW 123 0 0 Left 2
WINDOW 39 0 0 Left 2
SYMATTR InstName V3
SYMATTR Value 5
TEXT -276 526 Left 2 !.tran 30m
