Version 4
SHEET 1 880 680
WIRE 96 -128 48 -128
WIRE 48 -112 48 -128
WIRE 96 -80 96 -128
WIRE 0 32 -32 32
WIRE 96 64 96 0
WIRE 96 96 96 64
WIRE 48 112 -32 112
WIRE 64 112 48 112
WIRE -64 144 -144 144
WIRE -64 160 -64 144
WIRE 0 160 -64 160
WIRE 208 160 160 160
WIRE 48 192 48 176
WIRE -144 256 -144 224
WIRE 48 288 48 192
WIRE 48 400 48 368
FLAG 48 400 0
FLAG -144 256 0
FLAG 48 -112 0
FLAG 0 32 0
FLAG 208 160 Carry
IOPIN 208 160 Out
SYMBOL Fuller_Adder_Carry 112 176 R0
SYMATTR InstName X1
SYMBOL voltage -144 128 R0
WINDOW 123 0 0 Left 2
WINDOW 39 0 0 Left 2
SYMATTR InstName V1
SYMATTR Value 5
SYMBOL voltage 48 272 R0
WINDOW 123 0 0 Left 2
WINDOW 39 0 0 Left 2
SYMATTR InstName V2
SYMATTR Value PULSE(0 5 12m 2n 1n 12 0 0)
SYMBOL voltage -32 128 R180
WINDOW 0 24 96 Left 2
WINDOW 3 69 101 Left 2
WINDOW 123 0 0 Left 2
WINDOW 39 0 0 Left 2
SYMATTR InstName V3
SYMATTR Value PULSE(0 5 5.8m 0 0 5.8m 12m 0)
SYMBOL voltage 96 16 R180
WINDOW 0 24 96 Left 2
WINDOW 3 -359 63 Left 2
WINDOW 123 0 0 Left 2
WINDOW 39 0 0 Left 2
SYMATTR InstName V4
SYMATTR Value PULSE(0 5 3m 0 0 2.7m 6m 4)
TEXT -176 424 Left 2 !.tran 26m
