Version 4
SHEET 1 10404 3684
WIRE 480 -576 480 -624
WIRE 432 -368 432 -400
WIRE 480 -368 480 -416
WIRE -256 -352 -256 -416
WIRE -208 -352 -208 -432
WIRE 576 -304 576 -592
WIRE 720 -304 656 -304
WIRE -576 -240 -576 -272
WIRE 720 -224 720 -304
WIRE 144 -208 144 -224
WIRE 448 -176 448 -208
WIRE 48 -160 -48 -160
WIRE 240 -160 208 -160
WIRE 288 -160 240 -160
WIRE 320 -160 288 -160
WIRE 448 -144 448 -176
WIRE -240 -128 -240 -192
WIRE 288 -112 288 -160
WIRE 288 -112 192 -112
WIRE -240 -96 -240 -128
WIRE 432 -96 384 -96
WIRE 576 -96 576 -304
WIRE 576 -96 528 -96
WIRE 480 -80 480 -96
WIRE -256 -48 -320 -48
WIRE -96 -48 -160 -48
WIRE -48 -48 -48 -160
WIRE -48 -48 -96 -48
WIRE 192 0 192 -112
WIRE 208 0 192 0
WIRE 384 0 384 -96
WIRE 384 0 368 0
WIRE -320 32 -320 -48
WIRE 128 32 128 -32
WIRE 192 32 192 0
WIRE 224 32 192 32
WIRE -48 160 -48 -48
WIRE 128 160 128 128
WIRE 128 160 -48 160
WIRE 176 160 176 48
WIRE 224 160 224 32
WIRE 224 160 176 160
WIRE 128 176 128 160
WIRE 384 192 384 0
WIRE 432 192 384 192
WIRE 480 192 480 176
WIRE 576 192 576 -96
WIRE 576 192 528 192
WIRE 176 256 176 160
WIRE 128 304 128 272
WIRE 336 480 320 480
WIRE 512 480 512 240
WIRE 512 480 496 480
WIRE 0 0 0 0
FLAG 128 -32 VDD
FLAG -320 32 WRITE_DATA
FLAG 576 -592 READ_DATA
FLAG 480 -80 0
FLAG 480 -624 W
FLAG 432 -400 RAM_ADDR
FLAG -256 -416 RAM_ADDR
FLAG -208 -432 W
FLAG 448 -176 S
FLAG 320 480 S
FLAG 432 432 VDD
FLAG 528 -480 VDD
FLAG -160 -288 VDD
FLAG -1072 -464 0
FLAG -976 -192 0
FLAG -576 -160 0
FLAG -576 -272 VDD
FLAG -976 -272 WRITE_DATA
FLAG -1072 -544 RAM_ADDR
FLAG -784 -16 0
FLAG -784 -96 W
FLAG -208 -48 0
FLAG -240 -128 WE
FLAG -96 -48 Sx
FLAG 128 304 0
FLAG 240 -160 Sxinv
FLAG 480 176 VDD
FLAG 528 -304 VDD
FLAG 720 -224 0
FLAG 144 -224 VDD
FLAG 304 -48 VDD
SYMBOL nmos4 528 -144 R90
WINDOW 3 53 87 Left 2
SYMATTR Value W2018N W=10u L=1u
SYMATTR InstName M3
SYMBOL pmos4 432 240 R270
WINDOW 3 51 89 Left 2
SYMATTR Value W2018P W=20u L=1u
SYMATTR InstName M4
SYMBOL voltage -976 -288 R0
WINDOW 123 0 0 Left 2
WINDOW 39 0 0 Left 2
SYMATTR InstName V1
SYMATTR Value PULSE(0 5 10u 2n 2n 30u)
SYMBOL voltage -576 -256 R0
SYMATTR InstName V2
SYMATTR Value 5
SYMBOL voltage -1072 -560 R0
WINDOW 123 0 0 Left 2
WINDOW 39 0 0 Left 2
SYMATTR InstName V3
SYMATTR Value PULSE(0 5 10u 2n 2n 60u 80u 100)
SYMBOL voltage -784 -112 R0
WINDOW 123 0 0 Left 2
WINDOW 39 0 0 Left 2
SYMATTR InstName V4
SYMATTR Value PULSE(0 5 15u 2n 2n 5u 40u 100)
SYMBOL nmos4 -160 -96 R90
SYMATTR InstName M1
SYMATTR Value W2018N W=25u L=1u
SYMBOL nmos 176 176 M0
SYMATTR InstName M2
SYMATTR Value W2018N W=4.41u L=1u
SYMBOL pmos 176 128 R180
SYMATTR InstName M5
SYMATTR Value W2018P W=10u L=1u
SYMBOL res 672 -320 R90
WINDOW 0 0 56 VBottom 2
WINDOW 3 32 56 VTop 2
SYMATTR InstName R1
SYMATTR Value 100K
SYMBOL ANDsramtz -208 -288 R90
SYMATTR InstName X2
SYMBOL ANDsramtz 480 -304 R90
SYMATTR InstName X3
SYMBOL INV_SRAM3sramtz 128 -160 R0
SYMATTR InstName X1
SYMBOL INVsramtz 480 -496 R90
SYMATTR InstName X4
SYMBOL INVsramtz 416 480 R0
SYMATTR InstName X5
SYMBOL INVsramtz 288 0 R0
SYMATTR InstName X6
TEXT -864 224 Left 2 !.tran 100u
TEXT -568 336 Left 2 !* Tina'z W2018 models\n.MODEL W2018N NMOS (LEVEL=7 TOX=8e-9 U0 = 1300\n+CGSO=3.4E-10 CGDO=3.4E-10 CJ=6.8e-4 CJSW=1.26e-10\n+MJ=0.5 MJSW=0.5 CGBO=5.75E-10 RSH=33.8)\n.MODEL W2018P PMOS (LEVEL=7 TOX=8e-9 CGDO=5.3752E-11\n+U0= 440 CGSO=5.3752E-11 CGBO=3.3650E-10 CJ=4.8447E-04\n+MJ=0.5027 CJSW=1.6457E-10 MJSW=0.217168 RSH=29.8)
TEXT -744 80 Left 2 !.ic V(Sx)=0
TEXT -744 120 Left 2 !.ic V(Sxinv)=5
