Version 4
SHEET 1 996 808
WIRE -80 -48 -80 -96
WIRE 208 -16 208 -96
WIRE -176 0 -336 0
WIRE 208 0 -16 0
WIRE 208 16 208 0
WIRE 240 16 240 -32
WIRE 112 64 -128 64
WIRE 608 64 368 64
WIRE 112 96 -128 96
WIRE 608 96 368 96
WIRE 112 128 -128 128
WIRE 608 128 368 128
WIRE 112 160 -128 160
WIRE 608 160 368 160
WIRE 112 192 -128 192
WIRE 608 192 368 192
WIRE 112 224 -128 224
WIRE 608 224 368 224
WIRE 112 256 -128 256
WIRE 608 256 368 256
WIRE 112 288 -128 288
WIRE 608 288 368 288
WIRE 112 320 -128 320
WIRE 608 320 368 320
WIRE 208 416 48 416
WIRE 208 432 32 432
WIRE 240 432 240 384
WIRE 112 480 -128 480
WIRE 608 480 368 480
WIRE 112 512 -128 512
WIRE 608 512 368 512
WIRE 112 544 -128 544
WIRE 608 544 368 544
WIRE 112 576 -128 576
WIRE 608 576 368 576
WIRE 112 608 -128 608
WIRE 608 608 368 608
WIRE 112 640 -128 640
WIRE 608 640 368 640
WIRE 112 672 -128 672
WIRE 608 672 368 672
WIRE 112 704 -128 704
WIRE 608 704 368 704
WIRE 112 736 -128 736
WIRE 608 736 368 736
FLAG 240 -32 VDD
FLAG 240 384 VDD
FLAG -80 -96 VDD
IOPIN -80 -96 In
FLAG -336 0 RAM_ADDR
IOPIN -336 0 In
FLAG 32 432 RAM_ADDR
FLAG -128 64 WRITE_DATA[0]
IOPIN -128 64 In
FLAG -128 96 WRITE_DATA[1]
IOPIN -128 96 In
FLAG -128 128 WRITE_DATA[2]
IOPIN -128 128 In
FLAG -128 160 WRITE_DATA[3]
IOPIN -128 160 In
FLAG -128 192 WRITE_DATA[4]
IOPIN -128 192 In
FLAG -128 224 WRITE_DATA[5]
IOPIN -128 224 In
FLAG -128 256 WRITE_DATA[6]
IOPIN -128 256 In
FLAG -128 288 WRITE_DATA[7]
IOPIN -128 288 In
FLAG -128 320 WRITE_DATA[8]
IOPIN -128 320 In
FLAG -128 480 WRITE_DATA[0]
FLAG -128 512 WRITE_DATA[1]
FLAG -128 544 WRITE_DATA[2]
FLAG -128 576 WRITE_DATA[3]
FLAG -128 608 WRITE_DATA[4]
FLAG -128 640 WRITE_DATA[5]
FLAG -128 672 WRITE_DATA[6]
FLAG -128 704 WRITE_DATA[7]
FLAG -128 736 WRITE_DATA[8]
FLAG 608 64 READ_DATA[0]
IOPIN 608 64 In
FLAG 608 96 READ_DATA[1]
IOPIN 608 96 In
FLAG 608 128 READ_DATA[2]
IOPIN 608 128 In
FLAG 608 160 READ_DATA[3]
IOPIN 608 160 In
FLAG 608 192 READ_DATA[4]
IOPIN 608 192 In
FLAG 608 224 READ_DATA[5]
IOPIN 608 224 In
FLAG 608 256 READ_DATA[6]
IOPIN 608 256 In
FLAG 608 288 READ_DATA[7]
IOPIN 608 288 In
FLAG 608 320 READ_DATA[8]
IOPIN 608 320 In
FLAG 608 480 READ_DATA[0]
FLAG 608 512 READ_DATA[1]
FLAG 608 544 READ_DATA[2]
FLAG 608 576 READ_DATA[3]
FLAG 608 608 READ_DATA[4]
FLAG 608 640 READ_DATA[5]
FLAG 608 672 READ_DATA[6]
FLAG 608 704 READ_DATA[7]
FLAG 608 736 READ_DATA[8]
FLAG 208 -96 W
IOPIN 208 -96 In
FLAG 48 416 W
SYMBOL SRAM_cellsramtzAddr0 224 112 R0
WINDOW 0 -49 221 Left 2
SYMATTR InstName X1
SYMBOL SRAM_cellsramtzAddr1 224 528 R0
SYMATTR InstName X2
SYMBOL INVsramtz -96 0 R0
SYMATTR InstName X3
