Version 4
SHEET 1 2360 680
WIRE 1616 -416 1600 -416
WIRE 1600 -384 1600 -416
WIRE 1600 -384 1568 -384
WIRE 544 -208 544 -288
WIRE 1248 -176 1248 -256
WIRE -112 -160 -288 -160
WIRE 480 -160 -112 -160
WIRE 944 -160 944 -240
WIRE 672 -128 640 -128
WIRE 864 -128 832 -128
WIRE 1184 -128 1056 -128
WIRE 480 -112 48 -112
WIRE 864 -112 864 -128
WIRE 880 -112 864 -112
WIRE 1504 -96 1344 -96
WIRE 1648 -96 1504 -96
WIRE 1056 -80 1056 -128
WIRE 1056 -80 1040 -80
WIRE 1184 -80 1152 -80
WIRE 880 -64 864 -64
WIRE 768 -48 768 -80
WIRE 864 -16 864 -64
WIRE 864 -16 656 -16
WIRE -112 32 -112 -160
WIRE -160 128 -272 128
WIRE -16 128 -16 80
WIRE 48 128 48 -112
WIRE 48 128 -16 128
WIRE 464 128 48 128
WIRE 656 128 656 -16
WIRE 656 128 624 128
WIRE 1504 128 1504 -96
WIRE 1504 128 1104 128
WIRE 1152 144 1152 -80
WIRE 1504 144 1152 144
WIRE 560 208 560 176
WIRE 960 320 960 240
WIRE 528 336 528 272
WIRE 656 336 656 128
WIRE 816 336 656 336
WIRE 528 352 528 336
WIRE 1104 352 1104 128
WIRE 1184 352 1104 352
WIRE 816 368 816 336
WIRE 896 368 816 368
WIRE 1504 368 1504 144
WIRE 1504 368 1344 368
WIRE 1680 368 1504 368
WIRE 48 384 48 128
WIRE 464 384 48 384
WIRE 1184 400 1056 400
WIRE 656 416 624 416
WIRE 896 416 816 416
WIRE -112 432 -112 192
WIRE 464 432 -112 432
WIRE 752 496 752 464
WIRE 1248 496 1248 448
FLAG -16 80 CLK
IOPIN -16 80 In
FLAG -272 128 VDD
IOPIN -272 128 In
FLAG 1648 -96 Q
IOPIN 1648 -96 Out
FLAG 1680 368 Qbar
IOPIN 1680 368 Out
FLAG -288 -160 D
IOPIN -288 -160 In
FLAG 560 208 VDD
FLAG 1248 496 VDD
FLAG 1248 -256 VDD
FLAG 768 -48 VDD
FLAG 944 -240 VDD
FLAG 544 -288 VDD
FLAG 752 496 VDD
FLAG 960 240 VDD
FLAG 528 272 VDD
SYMBOL INV -112 112 M90
SYMATTR InstName X1
SYMBOL INVslow 544 128 M180
SYMATTR InstName X2
SYMBOL NAND 1248 -128 R0
SYMATTR InstName X5
SYMBOL NAND 1248 400 M180
SYMATTR InstName X6
SYMBOL NAND 544 -160 R0
SYMATTR InstName X3
SYMBOL INV 752 -128 M180
SYMATTR InstName X7
SYMBOL NAND 528 384 R0
SYMATTR InstName X4
SYMBOL INV 736 416 M180
SYMATTR InstName X9
SYMBOL NAND 944 -112 R0
SYMATTR InstName X8
SYMBOL NAND 960 368 R0
SYMATTR InstName X10
