Version 4
SHEET 1 880 680
WIRE 16 -80 0 -80
WIRE 240 -80 16 -80
WIRE 240 -64 240 -80
WIRE 240 -32 240 -64
WIRE 192 -16 16 -16
WIRE 208 -16 192 -16
WIRE 16 32 0 32
WIRE 144 32 16 32
WIRE 160 32 144 32
WIRE 304 32 288 32
WIRE 320 32 304 32
WIRE 192 64 176 64
WIRE 208 64 192 64
WIRE 176 80 176 64
WIRE 176 80 16 80
WIRE 192 160 48 160
WIRE 208 160 192 160
WIRE 144 208 48 208
WIRE 160 208 144 208
WIRE 272 208 256 208
WIRE 320 208 272 208
WIRE 144 272 64 272
WIRE 160 272 144 272
WIRE 192 304 64 304
WIRE 208 304 192 304
WIRE 64 352 64 304
FLAG 64 352 VDD
IOPIN 64 352 In
FLAG 48 160 A
IOPIN 48 160 In
FLAG 48 208 B
IOPIN 48 208 In
FLAG 64 272 Cin
IOPIN 64 272 In
FLAG 320 208 Sum
IOPIN 320 208 Out
FLAG 320 32 Carry
IOPIN 320 32 Out
FLAG 16 80 A
FLAG 16 32 VDD
FLAG 16 -16 B
FLAG 16 -80 Cin
SYMBOL Fuller_Adder_Sum 256 256 R0
SYMATTR InstName X1
SYMBOL Fuller_Adder_Carry 256 48 R0
SYMATTR InstName X2
