Version 4
SHEET 1 880 680
WIRE 384 272 336 272
WIRE 128 288 64 288
WIRE 384 304 384 272
WIRE 416 304 384 304
WIRE 112 336 64 336
WIRE 352 336 240 336
WIRE 560 336 480 336
WIRE 176 368 64 368
FLAG 272 160 Half_Adder_Carry
FLAG 64 288 VDD
IOPIN 64 288 In
FLAG 64 336 A
IOPIN 64 336 In
FLAG 64 368 B
IOPIN 64 368 In
FLAG 336 272 VDD
IOPIN 336 272 In
FLAG 560 336 Carry
IOPIN 560 336 Out
SYMBOL Nand_gate 224 352 R0
SYMATTR InstName X2
SYMBOL Inverter 448 352 R0
SYMATTR InstName X3
