Version 4
SHEET 1 880 680
WIRE 224 0 112 0
WIRE 240 0 224 0
WIRE -48 16 -96 16
WIRE -96 48 -96 16
WIRE 112 96 112 0
WIRE 224 112 224 80
WIRE 64 128 -96 128
WIRE 80 128 64 128
WIRE 192 160 160 160
WIRE 208 160 192 160
WIRE -64 192 -96 192
WIRE 64 192 64 176
WIRE 192 192 192 160
WIRE 112 240 112 224
WIRE 64 272 64 192
WIRE 64 272 -96 272
WIRE 112 288 112 240
WIRE 112 288 48 288
WIRE 48 400 48 368
FLAG 48 400 0
FLAG 224 112 0
FLAG -48 16 0
FLAG -64 192 0
FLAG 208 160 Sum
IOPIN 208 160 Out
SYMBOL voltage 224 -16 R0
WINDOW 123 0 0 Left 2
WINDOW 39 0 0 Left 2
SYMATTR InstName V1
SYMATTR Value 5
SYMBOL voltage 48 272 R0
WINDOW 123 0 0 Left 2
WINDOW 39 0 0 Left 2
SYMATTR InstName V2
SYMATTR Value PULSE(0 5 12m 0 0 12m 0 0)
SYMBOL voltage -96 288 R180
WINDOW 0 24 96 Left 2
WINDOW 3 69 101 Left 2
WINDOW 123 0 0 Left 2
WINDOW 39 0 0 Left 2
SYMATTR InstName V3
SYMATTR Value PULSE(0 5 6m 0 0 6m 12m 3)
SYMBOL voltage -96 144 M180
WINDOW 0 24 96 Left 2
WINDOW 3 -359 63 Left 2
WINDOW 123 0 0 Left 2
WINDOW 39 0 0 Left 2
SYMATTR InstName V4
SYMATTR Value PULSE(0 5 3m 0 0 3m 6m 4)
SYMBOL Fuller_Adder_Sum 176 144 M180
SYMATTR InstName X1
TEXT -178 424 Left 2 !.tran 26m
