Version 4
SHEET 1 904 680
WIRE -16 48 -112 48
WIRE 192 48 -16 48
WIRE 432 48 192 48
WIRE -16 96 -16 48
WIRE 192 96 192 48
WIRE -144 144 -176 144
WIRE -112 144 -144 144
WIRE 80 144 48 144
WIRE 128 144 80 144
WIRE 432 160 432 48
WIRE 336 176 288 176
WIRE 128 192 -112 192
WIRE 336 208 336 176
WIRE 368 208 336 208
WIRE 592 240 528 240
WIRE 368 256 336 256
WIRE -144 288 -144 144
WIRE 128 288 -144 288
WIRE 336 304 336 256
WIRE 336 304 288 304
WIRE -112 336 -112 192
WIRE -112 336 -144 336
WIRE 64 336 48 336
WIRE 128 336 64 336
WIRE -16 416 -16 384
WIRE -16 416 -160 416
WIRE 192 416 192 384
WIRE 192 416 -16 416
FLAG -112 48 VDD
IOPIN -112 48 In
FLAG -176 144 A
IOPIN -176 144 In
FLAG -144 336 B
IOPIN -144 336 In
FLAG 592 240 XOR
IOPIN 592 240 Out
FLAG -160 416 VDD
FLAG 80 144 Ab
FLAG 64 336 Bb
SYMBOL NAND 192 144 R0
SYMATTR InstName X1
SYMBOL NAND 192 336 M180
SYMATTR InstName X3
SYMBOL INV -32 144 R0
SYMATTR InstName X4
SYMBOL INV -32 336 M180
SYMATTR InstName X5
SYMBOL NAND 432 208 R0
SYMATTR InstName X2
