Version 4
SHEET 1 880 680
WIRE 144 48 -16 48
WIRE 432 48 144 48
WIRE 432 80 432 48
WIRE 144 96 144 48
WIRE 368 128 352 128
WIRE 80 144 -16 144
WIRE 272 160 256 160
WIRE 608 160 528 160
WIRE 368 176 352 176
WIRE 80 192 -16 192
FLAG -16 48 VDD
IOPIN -16 48 In
FLAG -16 144 A
IOPIN -16 144 In
FLAG -16 192 B
IOPIN -16 192 In
FLAG 352 128 A
FLAG 352 176 B
FLAG 272 160 S
IOPIN 272 160 Out
FLAG 608 160 C
IOPIN 608 160 Out
SYMBOL XOR 144 144 R0
SYMATTR InstName X1
SYMBOL AND 432 128 R0
SYMATTR InstName X2
