Version 4
SHEET 1 1212 1164
WIRE 144 48 -16 48
WIRE 352 48 144 48
WIRE 144 96 144 48
WIRE 80 144 -16 144
WIRE 80 192 -16 192
WIRE 352 240 352 48
WIRE 256 288 256 160
WIRE 288 288 256 288
WIRE 480 304 464 304
WIRE 288 336 -16 336
WIRE 128 480 128 448
WIRE 416 512 416 480
WIRE 64 528 48 528
WIRE 320 560 224 560
WIRE 528 560 480 560
WIRE 64 576 48 576
WIRE 656 592 656 560
WIRE 528 640 528 560
WIRE 592 640 528 640
WIRE 832 656 768 656
WIRE 592 688 528 688
WIRE 128 720 128 688
WIRE 944 736 944 704
WIRE 416 752 416 720
WIRE 64 768 48 768
WIRE 832 784 832 656
WIRE 880 784 832 784
WIRE 320 800 224 800
WIRE 528 800 528 688
WIRE 528 800 480 800
WIRE 64 816 48 816
WIRE 1120 816 1040 816
WIRE 880 832 832 832
WIRE 416 1008 416 976
WIRE 352 1056 336 1056
WIRE 832 1088 832 832
WIRE 832 1088 512 1088
WIRE 352 1104 336 1104
FLAG -16 48 VDD
IOPIN -16 48 In
FLAG -16 144 A
IOPIN -16 144 In
FLAG -16 192 B
IOPIN -16 192 In
FLAG 48 528 A
FLAG 48 576 B
FLAG 480 304 S
IOPIN 480 304 Out
FLAG -16 336 Ci
IOPIN -16 336 In
FLAG 128 448 VDD
FLAG 48 768 A
FLAG 48 816 Ci
FLAG 1120 816 Co
IOPIN 1120 816 Out
FLAG 128 688 VDD
FLAG 336 1056 B
FLAG 336 1104 Ci
FLAG 416 976 VDD
FLAG 416 480 VDD
FLAG 416 720 VDD
FLAG 656 560 VDD
FLAG 944 704 VDD
SYMBOL XOR 144 144 R0
SYMATTR InstName X1
SYMBOL XOR 352 288 R0
SYMATTR InstName X3
SYMBOL NAND 128 528 R0
SYMATTR InstName X2
SYMBOL NAND 128 768 R0
SYMATTR InstName X4
SYMBOL INV 400 560 R0
SYMATTR InstName X5
SYMBOL INV 400 800 R0
SYMATTR InstName X6
SYMBOL NAND 416 1056 R0
SYMATTR InstName X7
SYMBOL NOR 656 640 R0
SYMATTR InstName X8
SYMBOL NAND 944 784 R0
SYMATTR InstName X9
