Version 4
SHEET 1 880 680
WIRE 240 224 64 224
WIRE 240 272 240 224
WIRE 144 320 64 320
WIRE 368 320 304 320
FLAG 64 224 VDD
FLAG 64 320 Vin
FLAG 368 320 Vout
SYMBOL INV 224 320 R0
SYMATTR InstName X1
TEXT -16 16 Left 2 !*Tina'z W2018 models\n.MODEL W2018N NMOS (LEVEL=7 TOX=8e-9 U0 = 1300\n+CGSO=3.4E-10 CGDO=3.4E-10 CJ=6.8e-4 CJSW=1.26e-10\n+MJ=0.5 MJSW=0.5 CGBO=5.75E-10 RSH=33.8)\n.MODEL W2018P PMOS (LEVEL=7 TOX=8e-9 CGDO=5.3752E-11\n+U0= 440 CGSO=5.3752E-11 CGBO=3.3650E-10 CJ=4.8447E-04\n+MJ=0.5027 CJSW=1.6457E-10 MJSW=0.217168 RSH=29.8)
TEXT 16 400 Left 2 !V1 Vin 0 PULSE(0 5 0 1n 1n 2u 4u 100)\nV2 VDD 0 5
