Version 4
SHEET 1 880 680
WIRE 160 -64 160 -96
WIRE 240 0 240 -16
WIRE 240 0 208 0
WIRE 240 32 240 0
WIRE 240 32 224 32
WIRE 192 64 192 16
WIRE 160 112 160 16
WIRE -64 128 -112 128
WIRE 32 128 -64 128
WIRE 48 128 32 128
WIRE 80 128 48 128
WIRE 112 128 80 128
WIRE 128 128 112 128
WIRE 160 128 160 112
WIRE 272 128 256 128
WIRE 320 128 272 128
WIRE 80 160 80 128
WIRE 112 160 80 160
WIRE 128 160 112 160
WIRE 272 160 256 160
WIRE 320 160 272 160
WIRE -64 192 -64 128
WIRE 80 192 16 192
WIRE 112 192 80 192
WIRE 128 192 112 192
WIRE 272 192 256 192
WIRE 320 192 272 192
WIRE 80 224 80 192
WIRE 112 224 80 224
WIRE 128 224 112 224
WIRE 272 224 256 224
WIRE 320 224 272 224
WIRE 272 256 256 256
WIRE 320 256 272 256
WIRE 112 272 80 272
WIRE 128 272 112 272
WIRE 272 288 256 288
WIRE 320 288 272 288
WIRE 48 304 48 128
WIRE 112 304 48 304
WIRE 128 304 112 304
WIRE -64 320 -112 320
WIRE 272 320 256 320
WIRE 320 320 272 320
WIRE 16 336 16 320
WIRE 112 336 16 336
WIRE 128 336 112 336
WIRE 272 352 256 352
WIRE 320 352 272 352
WIRE 32 368 32 128
WIRE 112 368 32 368
WIRE 128 368 112 368
FLAG 240 -16 0
FLAG -112 128 0
FLAG -176 176 B_0011
FLAG -176 288 A_1010
FLAG 320 128 C7
IOPIN 320 128 Out
FLAG 320 160 C6
IOPIN 320 160 Out
FLAG 320 192 C5
IOPIN 320 192 Out
FLAG 320 224 C4
IOPIN 320 224 Out
FLAG 320 256 C3
IOPIN 320 256 Out
FLAG 320 288 C2
IOPIN 320 288 Out
FLAG 320 320 C1
IOPIN 320 320 Out
FLAG 320 352 C0
IOPIN 320 352 Out
FLAG 160 -96 0
FLAG -112 320 0
FLAG 192 16 0
FLAG 80 272 0
SYMBOL Multiplier 224 224 R0
SYMATTR InstName X1
SYMBOL voltage 160 32 R180
WINDOW 0 24 96 Left 2
WINDOW 3 24 16 Left 2
WINDOW 123 0 0 Left 2
WINDOW 39 0 0 Left 2
SYMATTR InstName V1
SYMATTR Value 5
SYMBOL voltage 32 192 R90
WINDOW 0 -32 56 VBottom 2
WINDOW 3 32 56 VTop 2
WINDOW 123 0 0 Left 2
WINDOW 39 0 0 Left 2
SYMATTR InstName V2
SYMATTR Value 5
SYMBOL voltage 32 320 R90
WINDOW 0 -32 56 VBottom 2
WINDOW 3 32 56 VTop 2
WINDOW 123 0 0 Left 2
WINDOW 39 0 0 Left 2
SYMATTR InstName V3
SYMATTR Value 5
TEXT -234 428 Left 2 !.tran 30m
