Version 4
SHEET 1 1400 1660
WIRE -208 -144 -208 -208
WIRE -1248 -96 -1360 -96
WIRE -1072 -96 -1088 -96
WIRE -896 -96 -912 -96
WIRE -304 -96 -400 -96
WIRE 0 -96 -144 -96
WIRE -752 -64 -752 -128
WIRE -1152 -48 -1360 -48
WIRE -976 -48 -1152 -48
WIRE -640 -16 -656 -16
WIRE -496 -16 -640 -16
WIRE -896 0 -896 -96
WIRE -816 0 -896 0
WIRE -816 48 -912 48
WIRE -1024 128 -1136 128
WIRE -208 128 -208 64
WIRE -272 176 -400 176
WIRE 48 192 -96 192
WIRE -656 224 -848 224
WIRE -272 224 -400 224
WIRE -1248 352 -1360 352
WIRE -1072 352 -1088 352
WIRE -896 352 -912 352
WIRE -784 384 -784 320
WIRE -1152 400 -1360 400
WIRE -976 400 -1152 400
WIRE -512 432 -672 432
WIRE -896 448 -896 352
WIRE -848 448 -896 448
WIRE -848 496 -944 496
WIRE -240 624 -240 512
WIRE 112 640 112 480
WIRE -304 672 -464 672
WIRE 48 688 -128 688
WIRE -1280 720 -1392 720
WIRE -1104 720 -1120 720
WIRE -928 720 -944 720
WIRE -304 720 -464 720
WIRE 352 720 208 720
WIRE 48 736 -80 736
WIRE -784 752 -784 688
WIRE -1184 768 -1392 768
WIRE -1008 768 -1184 768
WIRE -512 800 -672 800
WIRE -928 816 -928 720
WIRE -848 816 -928 816
WIRE -672 848 -688 848
WIRE 352 848 352 720
WIRE -848 864 -944 864
WIRE 592 880 528 880
WIRE 608 880 592 880
WIRE 752 880 736 880
WIRE 832 880 752 880
WIRE -80 896 -80 736
WIRE -80 896 -464 896
WIRE 352 896 208 896
WIRE -32 992 -464 992
WIRE 208 1008 208 896
WIRE 208 1008 128 1008
WIRE -336 1040 -464 1040
WIRE -176 1040 -192 1040
WIRE -32 1040 -176 1040
WIRE 0 1040 -32 1040
WIRE 688 1056 688 928
WIRE 32 1200 32 1088
WIRE 416 1200 416 944
WIRE -240 1216 -240 1088
WIRE 416 1216 416 1200
FLAG -400 -96 P[0]
FLAG -400 176 P[1]
FLAG 0 -96 N[0]
FLAG -400 224 P[0]
FLAG -208 64 VDD
FLAG 48 192 N[1]
FLAG -208 -208 VDD
FLAG -944 864 CLK
FLAG -496 -16 P[0]
FLAG -1360 -96 N[0]
FLAG -512 432 P[1]
FLAG -512 800 P[2]
FLAG -656 224 P[2:0]
IOPIN -656 224 Out
FLAG -464 720 P[0]
FLAG -464 1040 P[1]
FLAG -464 896 P[1]
FLAG -464 672 P[2]
FLAG -240 512 VDD
FLAG 112 480 VDD
FLAG -240 1216 VDD
FLAG 32 1200 VDD
FLAG 416 1200 VDD
FLAG 832 880 N[2]
FLAG -1360 -48 VDD
FLAG -464 992 P[2]
FLAG -1360 352 N[1]
FLAG -1360 400 VDD
FLAG -1392 720 N[2]
FLAG -1392 768 VDD
FLAG 688 1056 VDD
FLAG -784 688 VDD
FLAG -784 320 VDD
FLAG -944 496 CLK
FLAG -752 -128 VDD
IOPIN -752 -128 In
FLAG -912 48 CLK
FLAG -1136 128 CLK
IOPIN -1136 128 In
SYMBOL INVslow -992 -96 M180
SYMATTR InstName X8
SYMBOL INVslow -1168 -96 M180
SYMATTR InstName X14
SYMBOL INVslow -992 352 M180
SYMATTR InstName X12
SYMBOL INVslow -1168 352 M180
SYMATTR InstName X15
SYMBOL INVslow -1024 720 M180
SYMATTR InstName X13
SYMBOL INVslow -1200 720 M180
SYMATTR InstName X16
SYMBOL INV -224 -96 R0
SYMATTR InstName X1
SYMBOL XOR -208 176 R0
SYMATTR InstName X2
SYMBOL XOR -240 672 R0
SYMATTR InstName X3
SYMBOL AND 112 688 R0
SYMATTR InstName X4
SYMBOL INV -256 1040 M180
SYMATTR InstName X6
SYMBOL AND 32 1040 M180
SYMATTR InstName X5
SYMBOL NOR 416 896 M180
SYMATTR InstName X7
SYMBOL INV 672 880 M180
SYMATTR InstName X17
SYMBOL FlipFlop -784 800 R0
SYMATTR InstName X9
SYMBOL FlipFlop -784 432 R0
SYMATTR InstName X10
SYMBOL FlipFlop -752 -16 R0
SYMATTR InstName X11
TEXT -1432 512 Left 2 !.tran 200u uic
