Version 4
SHEET 1 1208 680
WIRE 96 -192 -32 -192
WIRE 96 -176 96 -192
WIRE 320 -176 256 -176
WIRE 32 -144 -64 -144
WIRE 160 -144 144 -144
WIRE 256 -144 160 -144
WIRE 608 -144 384 -144
WIRE 96 -112 -64 -112
WIRE 560 -96 496 -96
WIRE 576 -96 560 -96
WIRE 608 -80 608 -144
WIRE 608 -64 608 -80
WIRE 544 -48 512 -48
WIRE 560 -48 544 -48
WIRE 928 -48 672 -48
WIRE 96 16 -32 16
WIRE 96 32 96 16
WIRE 320 32 256 32
WIRE 32 64 -64 64
WIRE 160 64 144 64
WIRE 256 64 160 64
WIRE 512 64 512 -48
WIRE 512 64 384 64
WIRE 880 80 816 80
WIRE 896 80 880 80
WIRE 96 96 -64 96
WIRE 928 96 928 -48
WIRE 928 112 928 96
WIRE 864 128 512 128
WIRE 880 128 864 128
WIRE 1088 128 992 128
WIRE 96 240 -32 240
WIRE 96 256 96 240
WIRE 272 256 272 240
WIRE 336 256 272 256
WIRE 32 288 -64 288
WIRE 160 288 144 288
WIRE 272 288 160 288
WIRE 512 288 512 128
WIRE 512 288 400 288
WIRE 96 320 80 320
WIRE 80 336 80 320
WIRE 80 336 -64 336
FLAG 1088 128 Carry
IOPIN 1088 128 Out
FLAG -64 -144 A
IOPIN -64 -144 In
FLAG -64 64 A
FLAG -64 -112 B
IOPIN -64 -112 In
FLAG -64 336 B
FLAG -64 288 Cin
FLAG -64 96 Cin
IOPIN -64 96 In
FLAG -32 240 VDD
FLAG 272 240 VDD
FLAG 256 32 VDD
FLAG 256 -176 VDD
FLAG -32 16 VDD
FLAG 496 -96 VDD
FLAG 816 80 VDD
FLAG -32 -192 VDD
IOPIN -32 -192 In
FLAG 256 -256 Fuller_Adder_Carry
SYMBOL Nand_gate 128 304 R0
SYMATTR InstName X1
SYMBOL Nand_gate 128 80 R0
SYMATTR InstName X2
SYMBOL Nand_gate 128 -128 R0
SYMATTR InstName X3
SYMBOL Inverter 352 -128 R0
WINDOW 0 -45 16 Left 2
SYMATTR InstName X4
SYMBOL Inverter 352 80 R0
SYMATTR InstName X5
SYMBOL Inverter 368 304 R0
SYMATTR InstName X6
SYMBOL OR_gate 640 -48 R0
SYMATTR InstName X7
SYMBOL OR_gate 960 128 R0
SYMATTR InstName X8
