Version 4
SHEET 1 880 680
WIRE 192 -32 128 -32
WIRE 208 -32 192 -32
WIRE 176 16 96 16
WIRE 192 16 176 16
WIRE 304 16 288 16
WIRE 384 16 304 16
WIRE 240 48 96 48
WIRE 352 256 304 256
WIRE 96 272 32 272
WIRE 112 272 96 272
WIRE 352 288 352 256
WIRE 384 288 352 288
WIRE 80 320 32 320
WIRE 96 320 80 320
WIRE 320 320 208 320
WIRE 528 320 448 320
WIRE 144 352 32 352
FLAG 384 16 Sum
IOPIN 384 16 Out
FLAG 128 -32 VDD
FLAG 96 16 A
FLAG 96 48 B
FLAG 208 -80 Half_adder_Sum
FLAG 240 144 Half_Adder_Carry
FLAG 32 272 VDD
IOPIN 32 272 In
FLAG 32 320 A
IOPIN 32 320 In
FLAG 32 352 B
IOPIN 32 352 In
FLAG 304 256 VDD
FLAG 528 320 Carry
IOPIN 528 320 Out
SYMBOL xor 288 32 R0
SYMATTR InstName X1
SYMBOL Nand_gate 192 336 R0
SYMATTR InstName X2
SYMBOL Inverter 416 336 R0
SYMATTR InstName X3
