Version 4
SHEET 1 880 680
WIRE 144 128 80 128
WIRE 160 128 144 128
WIRE 128 176 48 176
WIRE 144 176 128 176
WIRE 256 176 240 176
WIRE 336 176 256 176
WIRE 192 208 48 208
FLAG 336 176 Sum
IOPIN 336 176 Out
FLAG 80 128 VDD
IOPIN 80 128 In
FLAG 48 176 A
IOPIN 48 176 In
FLAG 48 208 B
IOPIN 48 208 In
FLAG 160 80 Half_adder_Sum
SYMBOL xor 240 192 R0
WINDOW 0 -103 36 Left 2
SYMATTR InstName X1
