* Tina'z models
.MODEL W2017N NMOS (LEVEL=7  CGSO=3.4E-10 CGDO=3.4E-10 CJ=6.8e-4 
+CJSW=1.26e-10 MJ=0.5 MJSW=0.5
+CGBO=5.75E-10 RSH=33.8 CJ=6.8e-4 MJ=0.5  CJSW=1.26e-10
+MJSW=0.5)
.MODEL W2017P PMOS (LEVEL=7  CGDO=5.3752E-11 CGSO=5.3752E-11
+CGBO=3.3650E-10 CJ=4.8447E-04 MJ=0.5027 CJSW=1.6457E-10
+MJSW=0.217168 )