Version 4
SHEET 1 880 680
WIRE 192 48 32 48
WIRE 432 48 192 48
WIRE 192 96 192 48
WIRE 432 128 432 48
WIRE 128 144 32 144
WIRE 336 176 288 176
WIRE 560 176 496 176
WIRE 128 192 32 192
FLAG 32 48 VDD
IOPIN 32 48 In
FLAG 32 144 A
IOPIN 32 144 In
FLAG 32 192 B
IOPIN 32 192 In
FLAG 560 176 AND
IOPIN 560 176 Out
SYMBOL INVsramtz 416 176 R0
SYMATTR InstName X2
SYMBOL NANDsramtz 192 144 R0
SYMATTR InstName X1
