Version 4
SHEET 1 10404 3684
WIRE 624 -576 624 -624
WIRE 576 -368 576 -400
WIRE 624 -368 624 -416
WIRE -256 -352 -256 -416
WIRE -208 -352 -208 -432
WIRE 720 -304 720 -592
WIRE 864 -304 800 -304
WIRE 864 -224 864 -304
WIRE 144 -208 144 -224
WIRE 592 -176 592 -208
WIRE 48 -160 -48 -160
WIRE 272 -160 208 -160
WIRE 592 -144 592 -176
WIRE -240 -128 -240 -192
WIRE -240 -96 -240 -128
WIRE 272 -96 272 -160
WIRE 288 -96 272 -96
WIRE 528 -96 448 -96
WIRE 576 -96 528 -96
WIRE 720 -96 720 -304
WIRE 720 -96 672 -96
WIRE 624 -80 624 -96
WIRE -256 -48 -320 -48
WIRE -96 -48 -160 -48
WIRE -48 -48 -48 -160
WIRE -48 -48 -96 -48
WIRE -320 32 -320 -48
WIRE 128 32 128 -32
WIRE 272 64 272 -96
WIRE 272 64 224 64
WIRE -48 160 -48 -48
WIRE 128 160 128 128
WIRE 128 160 -48 160
WIRE 176 160 176 48
WIRE 224 160 224 64
WIRE 224 160 176 160
WIRE 128 176 128 160
WIRE 528 192 528 -96
WIRE 576 192 528 192
WIRE 624 192 624 176
WIRE 720 192 720 -96
WIRE 720 192 672 192
WIRE 176 256 176 160
WIRE 128 304 128 272
WIRE 480 464 464 464
WIRE 656 464 656 240
WIRE 656 464 640 464
FLAG 128 -32 VDD
FLAG -320 32 WRITE_DATA
IOPIN -320 32 In
FLAG 720 -592 READ_DATA
IOPIN 720 -592 Out
FLAG 624 -80 0
FLAG 624 -624 WRITE
FLAG 576 -400 RAM_ADDR
FLAG -256 -416 RAM_ADDR
IOPIN -256 -416 In
FLAG -208 -432 WRITE
IOPIN -208 -432 In
FLAG 592 -176 Read
FLAG 384 -144 VDD
FLAG 672 -480 VDD
FLAG -160 -288 VDD
FLAG -208 -48 0
FLAG -240 -128 WE
FLAG -96 -48 Sx
FLAG 128 304 0
FLAG 272 -160 Sxinv
FLAG 624 176 VDD
FLAG 672 -304 VDD
FLAG 864 -224 0
FLAG 144 -224 VDD
IOPIN 144 -224 In
FLAG 464 464 Read
FLAG 576 416 VDD
SYMBOL nmos4 672 -144 R90
WINDOW 3 53 87 Left 2
SYMATTR Value W2018N W=10u L=1u
SYMATTR InstName M3
SYMBOL pmos4 576 240 R270
WINDOW 3 51 89 Left 2
SYMATTR Value W2018P W=20u L=1u
SYMATTR InstName M4
SYMBOL nmos4 -160 -96 R90
SYMATTR InstName M1
SYMATTR Value W2018N W=25u L=1u
SYMBOL nmos 176 176 M0
SYMATTR InstName M2
SYMATTR Value W2018N W=4.41u L=1u
SYMBOL pmos 176 128 R180
SYMATTR InstName M5
SYMATTR Value W2018P W=10u L=1u
SYMBOL res 816 -320 R90
WINDOW 0 0 56 VBottom 2
WINDOW 3 32 56 VTop 2
SYMATTR InstName R1
SYMATTR Value 100K
SYMBOL INV_SRAM3sramtz 128 -160 R0
SYMATTR InstName X1
SYMBOL INVsramtz 624 -496 R90
SYMATTR InstName X4
SYMBOL INVsramtz 368 -96 R0
SYMATTR InstName X5
SYMBOL INVsramtz 560 464 R0
SYMATTR InstName X6
SYMBOL ANDsramtz -208 -288 R90
SYMATTR InstName X2
SYMBOL ANDsramtz 624 -304 R90
SYMATTR InstName X3
TEXT -680 280 Left 2 !* Tina'z W2018 models\n.MODEL W2018N NMOS (LEVEL=7 TOX=8e-9 U0 = 1300\n+CGSO=3.4E-10 CGDO=3.4E-10 CJ=6.8e-4 CJSW=1.26e-10\n+MJ=0.5 MJSW=0.5 CGBO=5.75E-10 RSH=33.8)\n.MODEL W2018P PMOS (LEVEL=7 TOX=8e-9 CGDO=5.3752E-11\n+U0= 440 CGSO=5.3752E-11 CGBO=3.3650E-10 CJ=4.8447E-04\n+MJ=0.5027 CJSW=1.6457E-10 MJSW=0.217168 RSH=29.8)
TEXT -616 80 Left 2 !.ic V(Sx)=0
TEXT -616 120 Left 2 !.ic V(Sxinv)=5
TEXT -616 160 Left 2 !.ic V(n002)=0
TEXT -616 200 Left 2 !.ic V(READ_DATA)=5
TEXT -616 48 Left 2 !.ic V(WE)=0
