Version 4
SHEET 1 880 932
WIRE 176 -48 144 -48
WIRE 176 -16 176 -48
WIRE 48 32 -32 32
WIRE 384 32 304 32
WIRE 48 64 -32 64
WIRE 384 64 304 64
WIRE 48 96 -32 96
WIRE 384 96 304 96
WIRE 48 128 -32 128
WIRE 384 128 304 128
WIRE 48 160 -32 160
WIRE 384 160 304 160
WIRE 48 192 -32 192
WIRE 384 192 304 192
WIRE 48 224 -32 224
WIRE 384 224 304 224
WIRE 48 256 -32 256
WIRE 384 256 304 256
WIRE 48 288 -32 288
WIRE 384 288 304 288
WIRE 176 480 144 480
WIRE 176 512 176 480
WIRE 48 560 -32 560
WIRE 384 560 304 560
WIRE 48 592 -32 592
WIRE 384 592 304 592
WIRE 48 624 -32 624
WIRE 384 624 304 624
WIRE 48 656 -32 656
WIRE 384 656 304 656
WIRE 48 688 -32 688
WIRE 384 688 304 688
WIRE 48 720 -32 720
WIRE 384 720 304 720
WIRE 48 752 -32 752
WIRE 384 752 304 752
WIRE 48 784 -32 784
WIRE 384 784 304 784
WIRE 48 816 -32 816
WIRE 384 816 304 816
FLAG -32 32 WL8
FLAG -32 64 WL7
FLAG -32 96 WL6
FLAG -32 128 WL5
FLAG -32 160 WL4
FLAG -32 192 WL3
FLAG -32 224 WL2
FLAG -32 256 WL1
FLAG -32 288 WL0
FLAG -32 560 WL8
FLAG -32 592 WL7
FLAG -32 624 WL6
FLAG -32 656 WL5
FLAG -32 688 WL4
FLAG -32 720 WL3
FLAG -32 752 WL2
FLAG -32 784 WL1
FLAG -32 816 WL0
FLAG 144 480 VDD
FLAG 144 -48 VDD
FLAG 384 32 BsL8
FLAG 384 64 BsL7
FLAG 384 96 BsL6
FLAG 384 128 BsL5
FLAG 384 160 BsL4
FLAG 384 192 BsL3
FLAG 384 224 BsL2
FLAG 384 256 BsL1
FLAG 384 288 BsL0
FLAG 384 560 BfL8
FLAG 384 592 BfL7
FLAG 384 624 BfL6
FLAG 384 656 BfL5
FLAG 384 688 BfL4
FLAG 384 720 BfL3
FLAG 384 752 BfL2
FLAG 384 784 BfL1
FLAG 384 816 BfL0
SYMBOL InstructionMemorySimple 192 192 R0
SYMATTR InstName X1
SYMBOL InstructionMemoryFinal 192 720 R0
SYMATTR InstName X2
TEXT -584 304 Left 2 !VA WL8 0 PULSE(0 5 0.18m 1n 1n 0.02m 0.04m 1)\nVB WL7 0 PULSE(0 5 0.16m 1n 1n 0.02m 0.04m 1)\nVC WL6 0 PULSE(0 5 0.14m 1n 1n 0.02m 0.04m 1)\nVD WL5 0 PULSE(0 5 0.12m 1n 1n 0.02m 0.04m 1)\nVE WL4 0 PULSE(0 5 0.1m 1n 1n 0.02m 0.04m 1)\nVF WL3 0 PULSE(0 5 0.08m 1n 1n 0.02m 0.04m 1)\nVG WL2 0 PULSE(0 5 0.06m 1n 1n 0.02m 0.04m 1)\nVH WL1 0 PULSE(0 5 0.04m 1n 1n 0.02m 0.04m 1)\nVI WL0 0 PULSE(0 5 0.02m 1n 1n 0.02m 0.04m 1)\nVDD VDD  0 5\n.tran 0 199u 21u
